[TITLE]


[JUNCTIONS]
;ID              	Elev        	Demand      	Pattern         
 CIb-0001        	36.959999084472656	0.005803125 	                	;
 CIb-0002        	35.779998779296875	0           	                	;
 CIb-0003        	35.779998779296875	0           	                	;
 CIb-0004        	35.720001220703125	0           	                	;
 CIb-0005        	33.83000183105469	0.507988368 	                	;
 CIb-0006        	33.83000183105469	0           	                	;
 CIb-0007        	34.27000045776367	0           	                	;
 CIb-0008        	32.86000061035156	0.067251771 	                	;
 CIb-0009        	31.639999389648438	0           	                	;
 CIb-0010        	31.639999389648438	0           	                	;
 CIb-0011        	31.6299991607666	0           	                	;
 CIb-0012        	37.7599983215332	0           	                	;
 CIb-0013        	37.90999984741211	0           	                	;
 CIb-0014        	37.83000183105469	0           	                	;
 CIb-0015        	37.65999984741211	0           	                	;
 CIb-0016        	32.630001068115234	0           	                	;
 CIb-0017        	37.65999984741211	0           	                	;
 CIb-0018        	37.91999816894531	0           	                	;
 CIb-0019        	36.959999084472656	0.053517708 	                	;
 CIb-0020        	36.959999084472656	0           	                	;
 CIb-0021        	36.630001068115234	0           	                	;
 CIb-0022        	36.630001068115234	0           	                	;
 CIb-0023        	36.310001373291016	0           	                	;
 CIb-0024        	33.0099983215332	0           	                	;
 CIb-0025        	38.95000076293945	0           	                	;
 CIb-0026        	36.40999984741211	0           	                	;
 CIb-0027        	38.93000030517578	0.018204618 	                	;
 CIb-0028        	38.88999938964844	0           	                	;
 CIb-0029        	38.88999938964844	0.050312254 	                	;
 CIb-0030        	38.93000030517578	0           	                	;
 CIb-0031        	38.869998931884766	0           	                	;
 CIb-0032        	38.79999923706055	0           	                	;
 CIb-0033        	31.290000915527344	0.928156111 	                	;
 CIb-0034        	38.939998626708984	0           	                	;
 CIb-0035        	38.619998931884766	0           	                	;
 CIb-0036        	33.4900016784668	0           	                	;
 CIb-0037        	29.510000228881836	0           	                	;
 CIb-0038        	31.5        	0           	                	;
 CIb-0039        	34.63999938964844	0           	                	;
 CIb-0040        	34.63999938964844	0           	                	;
 CIb-0041        	34.279998779296875	0           	                	;
 CIb-0042        	34.119998931884766	0           	                	;
 CIb-0043        	34.20000076293945	0           	                	;
 CIb-0044        	34.34000015258789	0           	                	;
 CIb-0045        	33.68000030517578	0           	                	;
 CIb-0046        	28.200000762939453	0.343996354 	                	;
 CIb-0047        	33.68000030517578	0           	                	;
 CIb-0048        	33.779998779296875	0           	                	;
 CIb-0049        	35.099998474121094	0           	                	;
 CIb-0050        	40.400001525878906	0           	                	;
 CIb-0051        	33.58000183105469	0           	                	;
 CIb-0052        	35.150001525878906	0.158661736 	                	;
 CIb-0053        	28.979999542236328	0           	                	;
 CIb-0054        	28.40999984741211	0           	                	;
 CIb-0055        	40.25       	0           	                	;
 CIb-0056        	37.02000045776367	0           	                	;
 CIb-0057        	40.20000076293945	0           	                	;
 CIb-0058        	36.88999938964844	0           	                	;
 CIb-0059        	36.81999969482422	0           	                	;
 CIb-0060        	36.849998474121094	0           	                	;
 CIb-0061        	39.77000045776367	0           	                	;
 CIb-0062        	28.43000030517578	0           	                	;
 CIb-0063        	28.34000015258789	0           	                	;
 CIb-0064        	39.7599983215332	0           	                	;
 CIb-0065        	39.7599983215332	0           	                	;
 CIb-0066        	39.81999969482422	0           	                	;
 CIb-0067        	28.219999313354492	0           	                	;
 CIb-0068        	28.0        	0           	                	;
 CIb-0069        	28.31999969482422	0           	                	;
 CIb-0070        	28.260000228881836	0           	                	;
 CIb-0071        	27.899999618530273	0.008059342 	                	;
 CIb-0072        	27.899999618530273	0           	                	;
 CIb-0073        	38.84000015258789	0.163952017 	                	;
 CIb-0074        	27.760000228881836	0           	                	;
 CIb-0075        	38.720001220703125	0           	                	;
 CIb-0076        	27.030000686645508	0           	                	;
 CIb-0077        	35.58000183105469	0           	                	;
 CIb-0078        	35.43000030517578	0           	                	;
 CIb-0079        	26.950000762939453	0           	                	;
 CIb-0080        	35.43000030517578	0           	                	;
 CIb-0081        	35.5        	0           	                	;
 CIb-0082        	37.0        	0.011627743 	                	;
 CIb-0083        	26.68000030517578	0.525243319 	                	;
 CIb-0084        	35.33000183105469	0           	                	;
 CIb-0085        	35.2400016784668	0.162487500 	                	;
 CIb-0086        	37.130001068115234	0.005981265 	                	;
 CIb-0087        	35.16999816894531	0           	                	;
 CIb-0088        	35.15999984741211	0.163175278 	                	;
 CIb-0089        	35.15999984741211	0           	                	;
 CIb-0090        	35.380001068115234	0           	                	;
 CIb-0091        	37.79999923706055	0           	                	;
 CIb-0092        	35.400001525878906	0           	                	;
 CIb-0093        	35.09000015258789	0.011649236 	                	;
 CIb-0094        	35.189998626708984	0.053109340 	                	;
 CIb-0095        	35.36000061035156	0           	                	;
 CIb-0096        	37.79999923706055	0           	                	;
 CIb-0097        	35.36000061035156	0           	                	;
 CIb-0098        	37.790000915527344	0           	                	;
 CIb-0099        	37.88999938964844	0           	                	;
 CIb-0100        	37.31999969482422	0           	                	;
 CIb-0101        	23.690000534057617	0           	                	;
 CIb-0102        	35.279998779296875	0           	                	;
 CIb-0103        	37.36000061035156	0.024717014 	                	;
 CIb-0104        	29.68000030517578	0           	                	;
 CIb-0105        	37.31999969482422	0           	                	;
 CIb-0106        	37.689998626708984	0           	                	;
 CIb-0107        	29.6200008392334	0           	                	;
 CIb-0108        	37.31999969482422	0.012368898 	                	;
 CIb-0109        	37.75       	0.033980521 	                	;
 CIb-0110        	29.420000076293945	0           	                	;
 CIb-0111        	39.529998779296875	0.030025799 	                	;
 CIb-0112        	29.350000381469727	0           	                	;
 CIb-0113        	34.20000076293945	0           	                	;
 CIb-0114        	37.0099983215332	0           	                	;
 CIb-0115        	34.0099983215332	0           	                	;
 CIb-0116        	28.280000686645508	0           	                	;
 CIb-0117        	28.309999465942383	0           	                	;
 CIb-0118        	36.970001220703125	0.010875486 	                	;
 CIb-0119        	36.970001220703125	0           	                	;
 CIb-0120        	28.690000534057617	0           	                	;
 CIb-0121        	36.790000915527344	0.036925069 	                	;
 CIb-0122        	37.029998779296875	0.088207500 	                	;
 CIb-0123        	37.029998779296875	0           	                	;
 CIb-0124        	37.029998779296875	0           	                	;
 CIb-0125        	36.150001525878906	0           	                	;
 CIb-0126        	28.510000228881836	0           	                	;
 CIb-0127        	23.079999923706055	0           	                	;
 CIb-0128        	28.290000915527344	0           	                	;
 CIb-0129        	23.84000015258789	0.058725474 	                	;
 CIb-0130        	23.1299991607666	0.073183854 	                	;
 CIb-0131        	28.389999389648438	0           	                	;
 CIb-0132        	28.600000381469727	0           	                	;
 CIb-0133        	36.06999969482422	0           	                	;
 CIb-0134        	36.06999969482422	0           	                	;
 CIb-0135        	22.299999237060547	0           	                	;
 CIb-0136        	36.9900016784668	0           	                	;
 CIb-0137        	36.9900016784668	0           	                	;
 CIb-0138        	36.040000915527344	0           	                	;
 CIb-0139        	36.970001220703125	0           	                	;
 CIb-0140        	28.299999237060547	0           	                	;
 CIb-0141        	22.010000228881836	0.171130419 	                	;
 CIb-0142        	33.18000030517578	0           	                	;
 CIb-0143        	36.18000030517578	0           	                	;
 CIb-0144        	22.739999771118164	0.106515062 	                	;
 CIb-0145        	35.970001220703125	0           	                	;
 CIb-0146        	22.600000381469727	0.072625035 	                	;
 CIb-0147        	36.04999923706055	0           	                	;
 CIb-0148        	22.530000686645508	0           	                	;
 CIb-0149        	23.209999084472656	0.138458264 	                	;
 CIb-0150        	28.1299991607666	0           	                	;
 CIb-0151        	32.849998474121094	0           	                	;
 CIb-0152        	33.52000045776367	0           	                	;
 CIb-0153        	18.729999542236328	0.075711756 	                	;
 CIb-0154        	32.77000045776367	0           	                	;
 CIb-0155        	27.860000610351562	0           	                	;
 CIb-0156        	23.049999237060547	0           	                	;
 CIb-0157        	32.77000045776367	0           	                	;
 CIb-0158        	21.299999237060547	0           	                	;
 CIb-0159        	32.93000030517578	0           	                	;
 CIb-0160        	23.15999984741211	0           	                	;
 CIb-0161        	27.850000381469727	0.125175556 	                	;
 CIb-0162        	27.719999313354492	0.041063624 	                	;
 CIb-0163        	33.33000183105469	0           	                	;
 CIb-0164        	26.18000030517578	0           	                	;
 CIb-0165        	18.670000076293945	0           	                	;
 CIb-0166        	27.610000610351562	0           	                	;
 CIb-0167        	33.33000183105469	0.054504884 	                	;
 CIb-0168        	27.639999389648438	0           	                	;
 CIb-0169        	35.650001525878906	0           	                	;
 CIb-0170        	33.279998779296875	0           	                	;
 CIb-0171        	33.279998779296875	0.008511250 	                	;
 CIb-0172        	35.099998474121094	0           	                	;
 CIb-0173        	27.8700008392334	0           	                	;
 CIb-0174        	35.7400016784668	0           	                	;
 CIb-0175        	35.7400016784668	0           	                	;
 CIb-0176        	33.400001525878906	0           	                	;
 CIb-0177        	21.920000076293945	0           	                	;
 CIb-0178        	35.099998474121094	0           	                	;
 CIb-0179        	36.54999923706055	0           	                	;
 CIb-0180        	22.040000915527344	0           	                	;
 CIb-0181        	22.149999618530273	0           	                	;
 CIb-0182        	35.099998474121094	0.088057049 	                	;
 CIb-0183        	27.579999923706055	0.040170521 	                	;
 CIb-0184        	22.149999618530273	0           	                	;
 CIb-0185        	22.15999984741211	0           	                	;
 CIb-0186        	27.600000381469727	0           	                	;
 CIb-0187        	28.350000381469727	0.020149555 	                	;
 CIb-0188        	36.099998474121094	0           	                	;
 CIb-0189        	28.350000381469727	0           	                	;
 CIb-0190        	27.600000381469727	0           	                	;
 CIb-0191        	27.950000762939453	0.017001007 	                	;
 CIb-0192        	19.760000228881836	0           	                	;
 CIb-0193        	33.4900016784668	0.017581319 	                	;
 CIb-0194        	20.040000915527344	0           	                	;
 CIb-0195        	33.040000915527344	0.026930799 	                	;
 CIb-0196        	33.290000915527344	0.024041747 	                	;
 CIb-0197        	33.790000915527344	0           	                	;
 CIb-0198        	34.650001525878906	0           	                	;
 CIb-0199        	18.270000457763672	0           	                	;
 CIb-0200        	18.34000015258789	0.130462666 	                	;
 CIb-0201        	28.540000915527344	0.049709514 	                	;
 CIb-0202        	34.41999816894531	0           	                	;
 CIb-0203        	34.689998626708984	0           	                	;
 CIb-0204        	27.420000076293945	0.018247604 	                	;
 CIb-0205        	20.219999313354492	0           	                	;
 CIb-0206        	34.439998626708984	0.077912326 	                	;
 CIb-0207        	34.06999969482422	0.001762431 	                	;
 CIb-0208        	33.72999954223633	0           	                	;
 CIb-0209        	32.7599983215332	0           	                	;
 CIb-0210        	33.88999938964844	0           	                	;
 CIb-0211        	22.299999237060547	0           	                	;
 CIb-0212        	19.8799991607666	0           	                	;
 CIb-0213        	33.779998779296875	0           	                	;
 CIb-0214        	19.940000534057617	0           	                	;
 CIb-0215        	33.880001068115234	0           	                	;
 CIb-0216        	34.36000061035156	0.119551473 	                	;
 CIb-0217        	31.440000534057617	0.151613519 	                	;
 CIb-0218        	19.850000381469727	0           	                	;
 CIb-0219        	19.81999969482422	0           	                	;
 CIb-0220        	31.440000534057617	0           	                	;
 CIb-0221        	32.70000076293945	0           	                	;
 CIb-0222        	27.030000686645508	0           	                	;
 CIb-0223        	32.70000076293945	0           	                	;
 CIb-0224        	33.75       	0.009637871 	                	;
 CIb-0225        	33.52000045776367	0           	                	;
 CIb-0226        	33.70000076293945	0           	                	;
 CIb-0227        	33.540000915527344	0.010123229 	                	;
 CIb-0228        	33.709999084472656	0.001697951 	                	;
 CIb-0229        	19.790000915527344	0.036882083 	                	;
 CIb-0230        	32.90999984741211	0           	                	;
 CIb-0231        	33.2599983215332	0           	                	;
 CIb-0232        	27.0        	0           	                	;
 CIb-0233        	29.479999542236328	0           	                	;
 CIb-0234        	34.41999816894531	0           	                	;
 CIb-0235        	33.25       	0           	                	;
 CIb-0236        	33.25       	0.007909444 	                	;
 CIb-0237        	23.049999237060547	0           	                	;
 CIb-0238        	39.25       	0.182862917 	                	;
 CIb-0239        	39.2599983215332	0.041610556 	                	;
 CIb-0240        	29.469999313354492	0           	                	;
 CIb-0241        	22.049999237060547	0.001900059 	                	;
 CIb-0242        	34.31999969482422	0           	                	;
 CIb-0243        	34.2599983215332	0           	                	;
 CIb-0244        	29.459999084472656	0.022610694 	                	;
 CIb-0245        	29.40999984741211	0.044361667 	                	;
 CIb-0246        	29.540000915527344	0           	                	;
 CIb-0247        	30.969999313354492	0           	                	;
 CIb-0248        	39.02000045776367	0           	                	;
 CIb-0249        	34.47999954223633	0           	                	;
 CIb-0250        	39.09000015258789	0           	                	;
 CIb-0251        	29.06999969482422	0           	                	;
 CIb-0252        	23.200000762939453	0.036645660 	                	;
 CIb-0253        	17.690000534057617	0.186460986 	                	;
 CIb-0254        	21.520000457763672	0           	                	;
 CIb-0255        	30.940000534057617	0           	                	;
 CIb-0256        	30.90999984741211	0           	                	;
 CIb-0257        	29.260000228881836	0           	                	;
 CIb-0258        	28.940000534057617	0           	                	;
 CIb-0259        	30.719999313354492	0           	                	;
 CIb-0260        	28.940000534057617	0           	                	;
 CIb-0261        	32.029998779296875	0           	                	;
 CIb-0262        	19.34000015258789	0           	                	;
 CIb-0263        	26.579999923706055	0.076622743 	                	;
 CIb-0264        	19.350000381469727	0           	                	;
 CIb-0265        	26.559999465942383	0           	                	;
 CIb-0266        	29.09000015258789	0           	                	;
 CIb-0267        	21.110000610351562	0           	                	;
 CIb-0268        	17.469999313354492	0           	                	;
 CIb-0269        	17.610000610351562	0           	                	;
 CIb-0270        	21.56999969482422	0           	                	;
 CIb-0271        	34.91999816894531	0           	                	;
 CIb-0272        	30.540000915527344	0.016833622 	                	;
 CIb-0273        	30.68000030517578	0           	                	;
 CIb-0274        	32.06999969482422	0           	                	;
 CIb-0275        	30.239999771118164	0           	                	;
 CIb-0276        	17.200000762939453	0           	                	;
 CIb-0277        	17.309999465942383	0           	                	;
 CIb-0278        	31.950000762939453	0           	                	;
 CIb-0279        	33.04999923706055	0           	                	;
 CIb-0280        	31.950000762939453	0           	                	;
 CIb-0281        	32.02000045776367	0           	                	;
 CIb-0282        	30.020000457763672	0           	                	;
 CIb-0283        	33.06999969482422	0           	                	;
 CIb-0284        	20.75       	0           	                	;
 CIb-0285        	20.75       	0           	                	;
 CIb-0286        	30.329999923706055	0           	                	;
 CIb-0287        	35.11000061035156	0           	                	;
 CIb-0288        	31.549999237060547	0           	                	;
 CIb-0289        	22.459999084472656	0.063705417 	                	;
 CIb-0290        	30.549999237060547	0           	                	;
 CIb-0291        	35.15999984741211	0           	                	;
 CIb-0292        	23.360000610351562	0           	                	;
 CIb-0293        	30.479999542236328	0.016657118 	                	;
 CIb-0294        	21.229999542236328	0.259249236 	                	;
 CIb-0295        	26.139999389648438	0           	                	;
 CIb-0296        	31.65999984741211	0.040106042 	                	;
 CIb-0297        	31.440000534057617	0           	                	;
 CIb-0298        	31.75       	0           	                	;
 CIb-0299        	25.889999389648438	0           	                	;
 CIb-0300        	30.280000686645508	0.009607396 	                	;
 CIb-0301        	23.420000076293945	0           	                	;
 CIb-0302        	29.979999542236328	0.084102326 	                	;
 CIb-0303        	31.239999771118164	0           	                	;
 CIb-0304        	23.68000030517578	0           	                	;
 CIb-0305        	25.860000610351562	0           	                	;
 CIb-0306        	23.420000076293945	0.042749688 	                	;
 CIb-0307        	25.75       	0           	                	;
 CIb-0308        	31.290000915527344	0           	                	;
 CIb-0309        	23.68000030517578	0           	                	;
 CIb-0310        	25.770000457763672	0           	                	;
 CIb-0311        	30.559999465942383	0           	                	;
 CIb-0312        	89.16000366210938	0.041644819 	                	;
 CIb-0313        	30.90999984741211	0.010939965 	                	;
 CIb-0314        	23.969999313354492	0           	                	;
 CIb-0315        	24.219999313354492	0.012358507 	                	;
 CIb-0316        	30.59000015258789	0           	                	;
 CIb-0317        	30.799999237060547	0.006490903 	                	;
 CIb-0318        	36.15999984741211	0           	                	;
 CIb-0319        	36.52000045776367	0           	                	;
 CIb-0320        	30.8799991607666	0.027231701 	                	;
 CIb-0321        	30.989999771118164	0           	                	;
 CIb-0322        	24.09000015258789	0           	                	;
 CIb-0323        	25.360000610351562	0           	                	;
 CIb-0324        	37.59000015258789	0           	                	;
 CIb-0325        	30.8799991607666	0           	                	;
 CIb-0326        	36.189998626708984	0           	                	;
 CIb-0327        	36.189998626708984	0           	                	;
 CIb-0328        	36.630001068115234	0           	                	;
 CIb-0329        	30.809999465942383	0           	                	;
 CIb-0330        	36.22999954223633	0           	                	;
 CIb-0331        	31.100000381469727	0           	                	;
 CIb-0332        	38.09000015258789	0.105853299 	                	;
 CIb-0333        	25.299999237060547	0           	                	;
 CIb-0334        	25.280000686645508	0           	                	;
 CIb-0335        	31.920000076293945	0           	                	;
 CIb-0336        	26.8799991607666	0           	                	;
 CIb-0337        	37.36000061035156	0           	                	;
 CIb-0338        	31.719999313354492	0           	                	;
 CIb-0340        	26.780000686645508	0           	                	;
 CIb-0341        	26.780000686645508	0           	                	;
 CIb-0342        	25.229999542236328	0           	                	;
 CIb-0343        	25.229999542236328	0.154771493 	                	;
 CIb-0344        	26.8700008392334	0           	                	;
 CIb-0345        	31.6200008392334	0           	                	;
 CIb-0346        	18.68000030517578	0           	                	;
 CIb-0347        	25.440000534057617	0           	                	;
 CIb-0348        	36.790000915527344	0           	                	;
 CIb-0349        	32.849998474121094	0.104286048 	                	;
 CIb-0350        	31.290000915527344	0.018476325 	                	;
 CIb-0351        	25.18000030517578	0           	                	;
 CIb-0352        	25.270000457763672	0           	                	;
 CIb-0353        	26.489999771118164	0.076343333 	                	;
 CIb-0354        	31.479999542236328	0           	                	;
 CIb-0355        	25.1200008392334	0           	                	;
 CIb-0356        	31.219999313354492	0.025533750 	                	;
 CIb-0357        	26.309999465942383	0.068154479 	                	;
 CIb-0358        	20.309999465942383	0.043601061 	                	;
 CIb-0359        	31.020000457763672	0           	                	;
 CIb-0360        	25.110000610351562	0           	                	;
 CIb-0361        	23.850000381469727	0           	                	;
 CIb-0362        	17.25       	0           	                	;
 CIb-0363        	20.260000228881836	0           	                	;
 CIb-0364        	25.59000015258789	0           	                	;
 CIb-0365        	15.489999771118164	0           	                	;
 CIb-0366        	19.31999969482422	0           	                	;
 CIb-0367        	31.09000015258789	0           	                	;
 CIb-0368        	17.209999084472656	0           	                	;
 CIb-0369        	20.549999237060547	0.053238299 	                	;
 CIb-0370        	17.209999084472656	0           	                	;
 CIb-0371        	26.030000686645508	0.189740694 	                	;
 CIb-0372        	17.34000015258789	0           	                	;
 CIb-0373        	24.81999969482422	0           	                	;
 CIb-0374        	20.260000228881836	0           	                	;
 CIb-0375        	31.049999237060547	0           	                	;
 CIb-0376        	23.600000381469727	0           	                	;
 CIb-0377        	30.920000076293945	0           	                	;
 CIb-0378        	24.75       	0           	                	;
 CIb-0379        	23.600000381469727	0.070088854 	                	;
 CIb-0380        	37.060001373291016	0           	                	;
 CIb-0381        	36.880001068115234	0           	                	;
 CIb-0382        	16.049999237060547	0           	                	;
 CIb-0383        	25.8700008392334	0           	                	;
 CIb-0384        	17.989999771118164	0           	                	;
 CIb-0385        	36.880001068115234	0.122123542 	                	;
 CIb-0386        	16.84000015258789	0.062071944 	                	;
 CIb-0387        	37.08000183105469	0           	                	;
 CIb-0388        	15.260000228881836	0           	                	;
 CIb-0389        	16.049999237060547	0           	                	;
 CIb-0390        	36.86000061035156	0           	                	;
 CIb-0391        	16.1200008392334	0           	                	;
 CIb-0392        	36.849998474121094	0           	                	;
 CIb-0393        	37.16999816894531	0.130226424 	                	;
 CIb-0394        	36.849998474121094	0           	                	;
 CIb-0395        	30.950000762939453	0.122918785 	                	;
 CIb-0396        	21.260000228881836	0           	                	;
 CIb-0397        	30.8799991607666	0           	                	;
 CIb-0398        	25.989999771118164	0           	                	;
 CIb-0399        	20.139999389648438	0           	                	;
 CIb-0400        	20.329999923706055	0           	                	;
 CIb-0401        	36.779998779296875	0           	                	;
 CIb-0402        	30.520000457763672	0           	                	;
 CIb-0403        	20.200000762939453	0           	                	;
 CIb-0404        	36.79999923706055	0           	                	;
 CIb-0405        	20.229999542236328	0           	                	;
 CIb-0406        	14.9399995803833	0           	                	;
 CIb-0407        	15.25       	0           	                	;
 CIb-0408        	14.859999656677246	0           	                	;
 CIb-0409        	15.25       	0.074527013 	                	;
 CIb-0410        	21.260000228881836	0           	                	;
 CIb-0411        	21.260000228881836	0           	                	;
 CIb-0412        	30.610000610351562	0           	                	;
 CIb-0413        	21.440000534057617	0.012853339 	                	;
 CIb-0414        	15.930000305175781	0.053367257 	                	;
 CIb-0415        	14.760000228881836	0           	                	;
 CIb-0416        	14.75       	0           	                	;
 CIb-0417        	29.459999084472656	0           	                	;
 CIb-0418        	26.280000686645508	0           	                	;
 CIb-0419        	16.329999923706055	0.047814421 	                	;
 CIb-0420        	26.56999969482422	0.022739653 	                	;
 CIb-0421        	29.290000915527344	0           	                	;
 CIb-0422        	26.690000534057617	0.098180278 	                	;
 CIb-0423        	16.1299991607666	0           	                	;
 CIb-0424        	16.1200008392334	0           	                	;
 CIb-0425        	21.81999969482422	0.002471701 	                	;
 CIb-0426        	29.31999969482422	0           	                	;
 CIb-0427        	21.81999969482422	0           	                	;
 CIb-0428        	22.309999465942383	0           	                	;
 CIb-0429        	36.400001525878906	0           	                	;
 CIb-0430        	23.760000228881836	0           	                	;
 CIb-0431        	29.290000915527344	0           	                	;
 CIb-0432        	26.389999389648438	0           	                	;
 CIb-0433        	36.45000076293945	0           	                	;
 CIb-0434        	23.5        	0           	                	;
 CIb-0435        	36.45000076293945	0           	                	;
 CIb-0436        	36.349998474121094	0           	                	;
 CIb-0437        	22.399999618530273	0           	                	;
 CIb-0438        	22.459999084472656	0           	                	;
 CIb-0439        	36.369998931884766	0           	                	;