[TITLE]


[JUNCTIONS]
;ID              	Elev        	Demand      	Pattern         
 J06             	10          	0           	                	;
 J11             	10          	0           	                	;
 J07             	10          	1           	Daily           	;
 J08             	10          	1.45        	Daily           	;
 J09             	10          	1           	Daily           	;
 J10             	10          	1           	Daily           	;

[RESERVOIRS]
;ID              	Head        	Pattern         

[TANKS]
;ID              	Elevation   	InitLevel   	MinLevel    	MaxLevel    	Diameter    	MinVol      	VolCurve
 Tank            	60          	5           	0           	5           	15.958      	0           	                	;

[PIPES]
;ID              	Node1           	Node2           	Length      	Diameter    	Roughness   	MinorLoss   	Status
 C05             	Tank            	J06             	5000        	125         	0.003       	0           	Open  	;
 C06             	J06             	J11             	1000        	100         	0.003       	0           	Open  	;
 C07             	J06             	J07             	1000        	100         	0.003       	0           	Open  	;
 C08             	J07             	J08             	1000        	100         	0.003       	0           	Open  	;
 C09             	J08             	J09             	1000        	50          	0.003       	0           	Open  	;
 C10             	J09             	J10             	1000        	100         	0.003       	0           	Open  	;
 C11             	J10             	J11             	1000        	100         	0.003       	0           	Open  	;

[PUMPS]
;ID              	Node1           	Node2           	Parameters

[VALVES]
;ID              	Node1           	Node2           	Diameter    	Type	Setting     	MinorLoss   

[TAGS]

[DEMANDS]
;Junction        	Demand      	Pattern         	Category

[STATUS]
;ID              	Status/Setting

[PATTERNS]
;ID              	Multipliers
;Daily demand evolution pattern
 Daily           	0.196       	0.196       	0.235       	0.314       	0.470       	0.587       
 Daily           	1.177       	1.960       	2.355       	2.156       	1.569       	1.177       
 Daily           	0.981       	0.786       	0.705       	0.665       	0.705       	1.177       
 Daily           	1.764       	1.960       	1.373       	0.786       	0.392       	0.314       

[CURVES]
;ID              	X-Value     	Y-Value
;PUMP: PUMP: PUMP: PUMP: PUMP: PUMP
 PUMP            	14          	49          

[CONTROLS]










[RULES]








[ENERGY]
 Global Efficiency  	75
 Global Price       	0
 Demand Charge      	0

[EMITTERS]
;Junction        	Coefficient
 J07             	.05
 J08             	.05
 J09             	.05
 J10             	.05

[QUALITY]
;Node            	InitQual
 Tank            	.2

[SOURCES]
;Node            	Type        	Quality     	Pattern

[REACTIONS]
;Type     	Pipe/Tank       	Coefficient
 Bulk     	C05             	-.15
 Wall     	C05             	-0.1
 Bulk     	C06             	-.15
 Wall     	C06             	-0.1
 Tank     	Tank            	-.15


[REACTIONS]
 Order Bulk            	1
 Order Tank            	1
 Order Wall            	1
 Global Bulk           	0
 Global Wall           	0
 Limiting Potential    	0
 Roughness Correlation 	0

[MIXING]
;Tank            	Model

[TIMES]
 Duration           	24:00 
 Hydraulic Timestep 	0:05 
 Quality Timestep   	0:05 
 Pattern Timestep   	1:00 
 Pattern Start      	0:00 
 Report Timestep    	1:00 
 Report Start       	168:00 
 Start ClockTime    	0:00
 Statistic          	NONE

[REPORT]
 Status             	No
 Summary            	No
 Page               	0

[OPTIONS]
 Units              	LPS
 Headloss           	D-W
 Specific Gravity   	1
 Viscosity          	1
 Trials             	40
 Accuracy           	0.001
 CHECKFREQ          	2
 MAXCHECK           	10
 DAMPLIMIT          	0
 Unbalanced         	Continue 10
 Pattern            	Daily
 Demand Multiplier  	1.0
 Emitter Exponent   	0.5
 Quality            	None mg/L
 Diffusivity        	1
 Tolerance          	0.01

[COORDINATES]
;Node            	X-Coord         	Y-Coord
 J06             	3500.00         	1500.00         
 J11             	4500.00         	1500.00         
 J07             	3500.00         	1000.00         
 J08             	3500.00         	500.00          
 J09             	4500.00         	500.00          
 J10             	4500.00         	1000.00         
 Tank            	2000.00         	2000.00         

[VERTICES]
;Link            	X-Coord         	Y-Coord

[LABELS]
;X-Coord           Y-Coord          Label & Anchor Node

[BACKDROP]
 DIMENSIONS     	1875.00         	425.00          	4625.00         	2075.00         
 UNITS          	None
 FILE           	
 OFFSET         	0.00            	0.00            

[END]
