[TITLE]


[JUNCTIONS]
;ID              	Elev        	Demand      	Pattern         
 J06             	10          	0           	                	;
 J11             	10          	0           	                	;
 J01             	55          	0           	                	;
 J02             	55          	0           	                	;
 J03             	55          	0           	                	;
 J05             	60          	0           	                	;
 J04             	60          	0           	                	;
 J07             	10          	4.34        	Daily           	;
 J08             	10          	1.45        	Daily           	;
 J09             	10          	2.89        	Daily           	;
 J10             	10          	2.89        	Daily           	;

[RESERVOIRS]
;ID              	Head        	Pattern         
 Well            	20          	                	;
 Spring          	70          	                	;

[TANKS]
;ID              	Elevation   	InitLevel   	MinLevel    	MaxLevel    	Diameter    	MinVol      	VolCurve
 Tank            	60          	3.2         	0           	5           	15.958      	0           	                	;

[PIPES]
;ID              	Node1           	Node2           	Length      	Diameter    	Roughness   	MinorLoss   	Status
 C05             	Tank            	J06             	1000        	150         	.1          	0           	Open  	;
 C06             	J06             	J11             	1000        	150         	0.1         	0           	Open  	;
 C01             	J01             	J02             	1000        	150         	.1          	0           	Open  	;
 C03             	Spring          	J04             	900         	150         	.1          	0           	Open  	;
 C02             	J03             	Tank            	10          	150         	.1          	0           	Open  	;
 C04             	J05             	J02             	100         	150         	.1          	0           	Closed	;
 C07             	J06             	J07             	1000        	150         	0.1         	0           	Open  	;
 C08             	J07             	J08             	1000        	150         	0.1         	0           	Open  	;
 C09             	J08             	J09             	1000        	150         	0.1         	0           	Open  	;
 C10             	J09             	J10             	1000        	150         	0.1         	0           	Open  	;
 C11             	J10             	J11             	1000        	150         	0.1         	0           	Open  	;

[PUMPS]
;ID              	Node1           	Node2           	Parameters
 Pump            	Well            	J01             	HEAD PUMP	SPEED 1	;

[VALVES]
;ID              	Node1           	Node2           	Diameter    	Type	Setting     	MinorLoss   
 Aux             	J02             	J03             	150         	PSV 	10          	0           	;
 FCV             	J04             	J05             	150         	FCV 	0           	0           	;

[TAGS]

[DEMANDS]
;Junction        	Demand      	Pattern         	Category

[STATUS]
;ID              	Status/Setting

[PATTERNS]
;ID              	Multipliers
;Daily demand evolution pattern
 Daily           	0.196       	0.196       	0.235       	0.314       	0.470       	0.587       
 Daily           	1.177       	1.960       	2.355       	2.156       	1.569       	1.177       
 Daily           	0.981       	0.786       	0.705       	0.665       	0.705       	1.177       
 Daily           	1.764       	1.960       	1.373       	0.786       	0.392       	0.314       

[CURVES]
;ID              	X-Value     	Y-Value
;PUMP: PUMP: PUMP: PUMP: PUMP: PUMP: PUMP: PUMP
 PUMP            	14          	49          

[CONTROLS]
LINK C04 CLOSED AT CLOCKTIME 4:00 AM
LINK C01 OPEN AT CLOCKTIME 4:00 AM
LINK Pump 1.0 AT CLOCKTIME 4:00 AM
LINK FCV 0.0 AT CLOCKTIME 4:00 AM
LINK C04 OPEN AT CLOCKTIME 4:00 AM
LINK C01 CLOSED AT CLOCKTIME 4:00 AM
LINK Pump 0.0 AT CLOCKTIME 4:00 AM
LINK FCV 12.76 AT CLOCKTIME 4:00 AM











[RULES]










[ENERGY]
 Global Efficiency  	75
 Global Price       	0
 Demand Charge      	0

[EMITTERS]
;Junction        	Coefficient
 J07             	.05
 J08             	.05
 J09             	.05
 J10             	.05

[QUALITY]
;Node            	InitQual
 Well            	0.2
 Spring          	.2
 Tank            	.2

[SOURCES]
;Node            	Type        	Quality     	Pattern

[REACTIONS]
;Type     	Pipe/Tank       	Coefficient
 Bulk     	C05             	-.15
 Wall     	C05             	-0.1
 Bulk     	C06             	-.15
 Wall     	C06             	-0.1
 Bulk     	C01             	-.15
 Wall     	C01             	-0.1
 Bulk     	C03             	-.15
 Wall     	C03             	-0.1
 Bulk     	C02             	-.15
 Wall     	C02             	-0.1
 Bulk     	C04             	-.15
 Wall     	C04             	-0.1
 Tank     	Tank            	-.15


[REACTIONS]
 Order Bulk            	1
 Order Tank            	1
 Order Wall            	1
 Global Bulk           	0
 Global Wall           	0
 Limiting Potential    	0
 Roughness Correlation 	0

[MIXING]
;Tank            	Model

[TIMES]
 Duration           	24:00
 Hydraulic Timestep 	0:05 
 Quality Timestep   	0:05 
 Pattern Timestep   	1:00 
 Pattern Start      	0:00 
 Report Timestep    	1:00 
 Report Start       	0:00 
 Start ClockTime    	0:00
 Statistic          	NONE

[REPORT]
 Status             	No
 Summary            	No
 Page               	0

[OPTIONS]
 Units              	LPS
 Headloss           	D-W
 Specific Gravity   	1
 Viscosity          	1
 Trials             	40
 Accuracy           	0.001
 CHECKFREQ          	2
 MAXCHECK           	10
 DAMPLIMIT          	0
 Unbalanced         	Continue 10
 Pattern            	Daily
 Demand Multiplier  	1.0
 Emitter Exponent   	0.5
 Quality            	Chemical mg/L
 Diffusivity        	1
 Tolerance          	0.01

[COORDINATES]
;Node            	X-Coord         	Y-Coord
 J06             	3500.00         	1500.00         
 J11             	4500.00         	1500.00         
 J01             	500.00          	2000.00         
 J02             	1000.00         	2000.00         
 J03             	1100.00         	2000.00         
 J05             	500.00          	2500.00         
 J04             	400.00          	2500.00         
 J07             	3500.00         	1000.00         
 J08             	3500.00         	500.00          
 J09             	4500.00         	500.00          
 J10             	4500.00         	1000.00         
 Well            	0.00            	1000.00         
 Spring          	0.00            	2500.00         
 Tank            	2000.00         	2000.00         

[VERTICES]
;Link            	X-Coord         	Y-Coord
 Pump            	500.00          	1000.00         

[LABELS]
;X-Coord           Y-Coord          Label & Anchor Node

[BACKDROP]
 DIMENSIONS     	-225.00         	400.00          	4725.00         	2600.00         
 UNITS          	None
 FILE           	
 OFFSET         	0.00            	0.00            

[END]
